Version 4
SHEET 1 2848 980
WIRE -560 -32 -640 -32
WIRE -384 -32 -400 -32
WIRE 192 0 96 0
WIRE 352 0 272 0
WIRE 576 0 512 0
WIRE 720 0 656 0
WIRE 720 128 720 0
WIRE 720 128 624 128
WIRE 800 128 720 128
WIRE 928 128 880 128
WIRE -512 144 -512 96
WIRE 352 144 352 0
WIRE 352 144 272 144
WIRE 400 144 352 144
WIRE 512 144 512 0
WIRE 512 144 480 144
WIRE 560 144 512 144
WIRE -384 160 -384 -32
WIRE -384 160 -480 160
WIRE -320 160 -384 160
WIRE 96 160 96 0
WIRE 96 160 -240 160
WIRE 208 160 96 160
WIRE 672 160 624 160
WIRE -544 176 -576 176
WIRE 320 176 272 176
WIRE -384 192 -480 192
WIRE 928 192 928 128
WIRE -640 208 -640 -32
WIRE -640 208 -880 208
WIRE -576 208 -576 176
WIRE -576 208 -640 208
WIRE 672 208 672 160
WIRE 320 224 320 176
WIRE -512 256 -512 208
WIRE -384 288 -384 192
WIRE -320 288 -384 288
WIRE -160 288 -240 288
WIRE -880 304 -880 208
WIRE -160 464 -160 288
WIRE -16 464 -16 432
WIRE -16 464 -160 464
WIRE -880 480 -880 384
WIRE -16 480 -16 464
FLAG -512 96 +VCC
FLAG -352 -256 0
FLAG -352 -336 +VCC
FLAG -224 -256 0
FLAG -224 -336 -VEE
FLAG -512 256 -VEE
FLAG -880 480 0
FLAG -880 208 out
FLAG -16 352 +VCC
FLAG -16 560 -VEE
FLAG 592 112 -VEE
FLAG 592 176 +VCC
FLAG 672 208 0
FLAG 928 192 0
FLAG 240 128 -VEE
FLAG 240 192 +VCC
FLAG 320 224 0
SYMBOL voltage -352 -352 R0
WINDOW 123 0 0 Left 2
WINDOW 39 0 0 Left 2
SYMATTR InstName V1
SYMATTR Value 5
SYMBOL res -336 144 M90
WINDOW 0 0 56 VBottom 2
WINDOW 3 32 56 VTop 2
SYMATTR InstName R1
SYMATTR Value 10k
SYMBOL voltage -224 -240 R180
WINDOW 123 0 0 Left 2
WINDOW 39 0 0 Left 2
SYMATTR InstName V4
SYMATTR Value 5
SYMBOL Opamps\\opamp2 -512 112 M0
SYMATTR InstName U4
SYMATTR Value LM324
SYMBOL res -864 288 M0
SYMATTR InstName RL1
SYMATTR Value 100k
SYMBOL res -336 272 M90
WINDOW 0 0 56 VBottom 2
WINDOW 3 32 56 VTop 2
SYMATTR InstName R3
SYMATTR Value 10k
SYMBOL res -576 -48 M90
WINDOW 0 0 56 VBottom 2
WINDOW 3 32 56 VTop 2
SYMATTR InstName R7
SYMATTR Value 6060
SYMBOL res -496 -48 M90
WINDOW 0 0 56 VBottom 2
WINDOW 3 32 56 VTop 2
SYMATTR InstName R8
SYMATTR Value 250
SYMBOL res 0 336 M0
SYMATTR InstName R2
SYMATTR Value 7838
SYMBOL res 0 464 M0
SYMATTR InstName R4
SYMATTR Value 10k
SYMBOL Opamps\\LT1001 592 208 R180
SYMATTR InstName U1
SYMBOL Opamps\\LT1001 240 224 R180
SYMATTR InstName U3
SYMBOL res 496 128 R90
WINDOW 0 0 56 VBottom 2
WINDOW 3 32 56 VTop 2
SYMATTR InstName R5
SYMATTR Value 10k
SYMBOL res 288 -16 R90
WINDOW 0 0 56 VBottom 2
WINDOW 3 32 56 VTop 2
SYMATTR InstName R6
SYMATTR Value 22k
SYMBOL res 672 -16 R90
WINDOW 0 0 56 VBottom 2
WINDOW 3 32 56 VTop 2
SYMATTR InstName R9
SYMATTR Value 1K
SYMBOL current 880 128 R90
WINDOW 0 -32 40 VBottom 2
WINDOW 3 32 40 VTop 2
WINDOW 123 0 0 Left 0
WINDOW 39 0 0 Left 0
SYMATTR InstName I1
SYMATTR Value SINE(0 1m 1k)
TEXT -784 -296 Left 2 !.tran 0.1
TEXT -744 -472 Left 2 !.lib LM324.txt
